838
Lattice=" 25.824750000000002 0.000000000000000 0.000000000000000 0.000000000000000 42.599999999999994 0.000000000000000 0.000000000000000 0.000000000000000 -3.350000000000000" Origin=" 0.0000000000 0.0000000000 0.0000000000"
A1 2.4595000000000002 3.5499999999999994 0.0
A1 4.9190000000000005 3.5499999999999994 0.0
A1 7.3785 3.5499999999999994 0.0
A1 9.838000000000001 3.5499999999999994 0.0
A1 12.297500000000001 3.5499999999999994 0.0
A1 14.756999999999998 3.5499999999999994 0.0
A1 17.2165 3.5499999999999994 0.0
A1 19.676000000000002 3.5499999999999994 0.0
A1 22.1355 3.5499999999999994 0.0
A1 24.595 3.5499999999999994 0.0
A1 2.4595000000000002 7.809999999999999 0.0
A1 4.9190000000000005 7.809999999999999 0.0
A1 7.3785 7.809999999999999 0.0
A1 9.838000000000001 7.809999999999999 0.0
A1 12.297500000000001 7.809999999999999 0.0
A1 14.756999999999998 7.809999999999999 0.0
A1 17.2165 7.809999999999999 0.0
A1 19.676000000000002 7.809999999999999 0.0
A1 22.1355 7.809999999999999 0.0
A1 24.595 7.809999999999999 0.0
A1 2.4595000000000002 12.069999999999999 0.0
A1 4.9190000000000005 12.069999999999999 0.0
A1 7.3785 12.069999999999999 0.0
A1 9.838000000000001 12.069999999999999 0.0
A1 12.297500000000001 12.069999999999999 0.0
A1 14.756999999999998 12.069999999999999 0.0
A1 17.2165 12.069999999999999 0.0
A1 19.676000000000002 12.069999999999999 0.0
A1 22.1355 12.069999999999999 0.0
A1 24.595 12.069999999999999 0.0
A1 2.4595000000000002 16.33 0.0
A1 4.9190000000000005 16.33 0.0
A1 7.3785 16.33 0.0
A1 9.838000000000001 16.33 0.0
A1 12.297500000000001 16.33 0.0
A1 14.756999999999998 16.33 0.0
A1 17.2165 16.33 0.0
A1 19.676000000000002 16.33 0.0
A1 22.1355 16.33 0.0
A1 24.595 16.33 0.0
A1 2.4595000000000002 20.589999999999996 0.0
A1 4.9190000000000005 20.589999999999996 0.0
A1 7.3785 20.589999999999996 0.0
A1 9.838000000000001 20.589999999999996 0.0
A1 12.297500000000001 20.589999999999996 0.0
A1 14.756999999999998 20.589999999999996 0.0
A1 17.2165 20.589999999999996 0.0
A1 19.676000000000002 20.589999999999996 0.0
A1 22.1355 20.589999999999996 0.0
A1 24.595 20.589999999999996 0.0
A1 2.4595000000000002 24.849999999999994 0.0
A1 4.9190000000000005 24.849999999999994 0.0
A1 7.3785 24.849999999999994 0.0
A1 9.838000000000001 24.849999999999994 0.0
A1 12.297500000000001 24.849999999999994 0.0
A1 14.756999999999998 24.849999999999994 0.0
A1 17.2165 24.849999999999994 0.0
A1 19.676000000000002 24.849999999999994 0.0
A1 22.1355 24.849999999999994 0.0
A1 24.595 24.849999999999994 0.0
A1 2.4595000000000002 29.109999999999996 0.0
A1 4.9190000000000005 29.109999999999996 0.0
A1 7.3785 29.109999999999996 0.0
A1 9.838000000000001 29.109999999999996 0.0
A1 12.297500000000001 29.109999999999996 0.0
A1 14.756999999999998 29.109999999999996 0.0
A1 17.2165 29.109999999999996 0.0
A1 19.676000000000002 29.109999999999996 0.0
A1 22.1355 29.109999999999996 0.0
A1 24.595 29.109999999999996 0.0
A1 2.4595000000000002 33.37 0.0
A1 4.9190000000000005 33.37 0.0
A1 7.3785 33.37 0.0
A1 9.838000000000001 33.37 0.0
A1 12.297500000000001 33.37 0.0
A1 14.756999999999998 33.37 0.0
A1 17.2165 33.37 0.0
A1 19.676000000000002 33.37 0.0
A1 22.1355 33.37 0.0
A1 24.595 33.37 0.0
A1 2.4595000000000002 37.629999999999995 0.0
A1 4.9190000000000005 37.629999999999995 0.0
A1 7.3785 37.629999999999995 0.0
A1 9.838000000000001 37.629999999999995 0.0
A1 12.297500000000001 37.629999999999995 0.0
A1 14.756999999999998 37.629999999999995 0.0
A1 17.2165 37.629999999999995 0.0
A1 19.676000000000002 37.629999999999995 0.0
A1 22.1355 37.629999999999995 0.0
A1 24.595 37.629999999999995 0.0
A1 2.4595000000000002 41.88999999999999 0.0
A1 4.9190000000000005 41.88999999999999 0.0
A1 7.3785 41.88999999999999 0.0
A1 9.838000000000001 41.88999999999999 0.0
A1 12.297500000000001 41.88999999999999 0.0
A1 14.756999999999998 41.88999999999999 0.0
A1 17.2165 41.88999999999999 0.0
A1 19.676000000000002 41.88999999999999 0.0
A1 22.1355 41.88999999999999 0.0
A1 24.595 41.88999999999999 0.0
A1 1.2297500000000001 1.4199999999999995 0.0
A1 3.68925 1.4199999999999995 0.0
A1 6.148750000000001 1.4199999999999995 0.0
A1 8.60825 1.4199999999999995 0.0
A1 11.06775 1.4199999999999995 0.0
A1 13.527249999999999 1.4199999999999995 0.0
A1 15.986749999999999 1.4199999999999995 0.0
A1 18.44625 1.4199999999999995 0.0
A1 20.905750000000005 1.4199999999999995 0.0
A1 23.365250000000003 1.4199999999999995 0.0
A1 25.82475 1.4199999999999995 0.0
A1 1.2297500000000001 5.679999999999998 0.0
A1 3.68925 5.679999999999998 0.0
A1 6.148750000000001 5.679999999999998 0.0
A1 8.60825 5.679999999999998 0.0
A1 11.06775 5.679999999999998 0.0
A1 13.527249999999999 5.679999999999998 0.0
A1 15.986749999999999 5.679999999999998 0.0
A1 18.44625 5.679999999999998 0.0
A1 20.905750000000005 5.679999999999998 0.0
A1 23.365250000000003 5.679999999999998 0.0
A1 25.82475 5.679999999999998 0.0
A1 1.2297500000000001 9.939999999999998 0.0
A1 3.68925 9.939999999999998 0.0
A1 6.148750000000001 9.939999999999998 0.0
A1 8.60825 9.939999999999998 0.0
A1 11.06775 9.939999999999998 0.0
A1 13.527249999999999 9.939999999999998 0.0
A1 15.986749999999999 9.939999999999998 0.0
A1 18.44625 9.939999999999998 0.0
A1 20.905750000000005 9.939999999999998 0.0
A1 23.365250000000003 9.939999999999998 0.0
A1 25.82475 9.939999999999998 0.0
A1 1.2297500000000001 14.199999999999998 0.0
A1 3.68925 14.199999999999998 0.0
A1 6.148750000000001 14.199999999999998 0.0
A1 8.60825 14.199999999999998 0.0
A1 11.06775 14.199999999999998 0.0
A1 13.527249999999999 14.199999999999998 0.0
A1 15.986749999999999 14.199999999999998 0.0
A1 18.44625 14.199999999999998 0.0
A1 20.905750000000005 14.199999999999998 0.0
A1 23.365250000000003 14.199999999999998 0.0
A1 25.82475 14.199999999999998 0.0
A1 1.2297500000000001 18.459999999999997 0.0
A1 3.68925 18.459999999999997 0.0
A1 6.148750000000001 18.459999999999997 0.0
A1 8.60825 18.459999999999997 0.0
A1 11.06775 18.459999999999997 0.0
A1 13.527249999999999 18.459999999999997 0.0
A1 15.986749999999999 18.459999999999997 0.0
A1 18.44625 18.459999999999997 0.0
A1 20.905750000000005 18.459999999999997 0.0
A1 23.365250000000003 18.459999999999997 0.0
A1 25.82475 18.459999999999997 0.0
A1 1.2297500000000001 22.72 0.0
A1 3.68925 22.72 0.0
A1 6.148750000000001 22.72 0.0
A1 8.60825 22.72 0.0
A1 11.06775 22.72 0.0
A1 13.527249999999999 22.72 0.0
A1 15.986749999999999 22.72 0.0
A1 18.44625 22.72 0.0
A1 20.905750000000005 22.72 0.0
A1 23.365250000000003 22.72 0.0
A1 25.82475 22.72 0.0
A1 1.2297500000000001 26.979999999999997 0.0
A1 3.68925 26.979999999999997 0.0
A1 6.148750000000001 26.979999999999997 0.0
A1 8.60825 26.979999999999997 0.0
A1 11.06775 26.979999999999997 0.0
A1 13.527249999999999 26.979999999999997 0.0
A1 15.986749999999999 26.979999999999997 0.0
A1 18.44625 26.979999999999997 0.0
A1 20.905750000000005 26.979999999999997 0.0
A1 23.365250000000003 26.979999999999997 0.0
A1 25.82475 26.979999999999997 0.0
A1 1.2297500000000001 31.239999999999995 0.0
A1 3.68925 31.239999999999995 0.0
A1 6.148750000000001 31.239999999999995 0.0
A1 8.60825 31.239999999999995 0.0
A1 11.06775 31.239999999999995 0.0
A1 13.527249999999999 31.239999999999995 0.0
A1 15.986749999999999 31.239999999999995 0.0
A1 18.44625 31.239999999999995 0.0
A1 20.905750000000005 31.239999999999995 0.0
A1 23.365250000000003 31.239999999999995 0.0
A1 25.82475 31.239999999999995 0.0
A1 1.2297500000000001 35.5 0.0
A1 3.68925 35.5 0.0
A1 6.148750000000001 35.5 0.0
A1 8.60825 35.5 0.0
A1 11.06775 35.5 0.0
A1 13.527249999999999 35.5 0.0
A1 15.986749999999999 35.5 0.0
A1 18.44625 35.5 0.0
A1 20.905750000000005 35.5 0.0
A1 23.365250000000003 35.5 0.0
A1 25.82475 35.5 0.0
A1 1.2297500000000001 39.76 0.0
A1 3.68925 39.76 0.0
A1 6.148750000000001 39.76 0.0
A1 8.60825 39.76 0.0
A1 11.06775 39.76 0.0
A1 13.527249999999999 39.76 0.0
A1 15.986749999999999 39.76 0.0
A1 18.44625 39.76 0.0
A1 20.905750000000005 39.76 0.0
A1 23.365250000000003 39.76 0.0
A1 25.82475 39.76 0.0
A1 2.4595000000000002 0.7100000000000001 0.0
A1 4.9190000000000005 0.7100000000000001 0.0
A1 7.3785 0.7100000000000001 0.0
A1 9.838000000000001 0.7100000000000001 0.0
A1 12.297500000000001 0.7100000000000001 0.0
A1 14.756999999999998 0.7100000000000001 0.0
A1 17.2165 0.7100000000000001 0.0
A1 19.676000000000002 0.7100000000000001 0.0
A1 22.1355 0.7100000000000001 0.0
A1 24.595 0.7100000000000001 0.0
A1 2.4595000000000002 4.97 0.0
A1 4.9190000000000005 4.97 0.0
A1 7.3785 4.97 0.0
A1 9.838000000000001 4.97 0.0
A1 12.297500000000001 4.97 0.0
A1 14.756999999999998 4.97 0.0
A1 17.2165 4.97 0.0
A1 19.676000000000002 4.97 0.0
A1 22.1355 4.97 0.0
A1 24.595 4.97 0.0
A1 2.4595000000000002 9.229999999999999 0.0
A1 4.9190000000000005 9.229999999999999 0.0
A1 7.3785 9.229999999999999 0.0
A1 9.838000000000001 9.229999999999999 0.0
A1 12.297500000000001 9.229999999999999 0.0
A1 14.756999999999998 9.229999999999999 0.0
A1 17.2165 9.229999999999999 0.0
A1 19.676000000000002 9.229999999999999 0.0
A1 22.1355 9.229999999999999 0.0
A1 24.595 9.229999999999999 0.0
A1 2.4595000000000002 13.489999999999998 0.0
A1 4.9190000000000005 13.489999999999998 0.0
A1 7.3785 13.489999999999998 0.0
A1 9.838000000000001 13.489999999999998 0.0
A1 12.297500000000001 13.489999999999998 0.0
A1 14.756999999999998 13.489999999999998 0.0
A1 17.2165 13.489999999999998 0.0
A1 19.676000000000002 13.489999999999998 0.0
A1 22.1355 13.489999999999998 0.0
A1 24.595 13.489999999999998 0.0
A1 2.4595000000000002 17.75 0.0
A1 4.9190000000000005 17.75 0.0
A1 7.3785 17.75 0.0
A1 9.838000000000001 17.75 0.0
A1 12.297500000000001 17.75 0.0
A1 14.756999999999998 17.75 0.0
A1 17.2165 17.75 0.0
A1 19.676000000000002 17.75 0.0
A1 22.1355 17.75 0.0
A1 24.595 17.75 0.0
A1 2.4595000000000002 22.009999999999998 0.0
A1 4.9190000000000005 22.009999999999998 0.0
A1 7.3785 22.009999999999998 0.0
A1 9.838000000000001 22.009999999999998 0.0
A1 12.297500000000001 22.009999999999998 0.0
A1 14.756999999999998 22.009999999999998 0.0
A1 17.2165 22.009999999999998 0.0
A1 19.676000000000002 22.009999999999998 0.0
A1 22.1355 22.009999999999998 0.0
A1 24.595 22.009999999999998 0.0
A1 2.4595000000000002 26.269999999999992 0.0
A1 4.9190000000000005 26.269999999999992 0.0
A1 7.3785 26.269999999999992 0.0
A1 9.838000000000001 26.269999999999992 0.0
A1 12.297500000000001 26.269999999999992 0.0
A1 14.756999999999998 26.269999999999992 0.0
A1 17.2165 26.269999999999992 0.0
A1 19.676000000000002 26.269999999999992 0.0
A1 22.1355 26.269999999999992 0.0
A1 24.595 26.269999999999992 0.0
A1 2.4595000000000002 30.529999999999994 0.0
A1 4.9190000000000005 30.529999999999994 0.0
A1 7.3785 30.529999999999994 0.0
A1 9.838000000000001 30.529999999999994 0.0
A1 12.297500000000001 30.529999999999994 0.0
A1 14.756999999999998 30.529999999999994 0.0
A1 17.2165 30.529999999999994 0.0
A1 19.676000000000002 30.529999999999994 0.0
A1 22.1355 30.529999999999994 0.0
A1 24.595 30.529999999999994 0.0
A1 2.4595000000000002 34.79 0.0
A1 4.9190000000000005 34.79 0.0
A1 7.3785 34.79 0.0
A1 9.838000000000001 34.79 0.0
A1 12.297500000000001 34.79 0.0
A1 14.756999999999998 34.79 0.0
A1 17.2165 34.79 0.0
A1 19.676000000000002 34.79 0.0
A1 22.1355 34.79 0.0
A1 24.595 34.79 0.0
A1 2.4595000000000002 39.05 0.0
A1 4.9190000000000005 39.05 0.0
A1 7.3785 39.05 0.0
A1 9.838000000000001 39.05 0.0
A1 12.297500000000001 39.05 0.0
A1 14.756999999999998 39.05 0.0
A1 17.2165 39.05 0.0
A1 19.676000000000002 39.05 0.0
A1 22.1355 39.05 0.0
A1 24.595 39.05 0.0
A1 1.2297500000000001 2.84 0.0
A1 3.68925 2.84 0.0
A1 6.148750000000001 2.84 0.0
A1 8.60825 2.84 0.0
A1 11.06775 2.84 0.0
A1 13.527249999999999 2.84 0.0
A1 15.986749999999999 2.84 0.0
A1 18.44625 2.84 0.0
A1 20.905750000000005 2.84 0.0
A1 23.365250000000003 2.84 0.0
A1 25.82475 2.84 0.0
A1 1.2297500000000001 7.1 0.0
A1 3.68925 7.1 0.0
A1 6.148750000000001 7.1 0.0
A1 8.60825 7.1 0.0
A1 11.06775 7.1 0.0
A1 13.527249999999999 7.1 0.0
A1 15.986749999999999 7.1 0.0
A1 18.44625 7.1 0.0
A1 20.905750000000005 7.1 0.0
A1 23.365250000000003 7.1 0.0
A1 25.82475 7.1 0.0
A1 1.2297500000000001 11.36 0.0
A1 3.68925 11.36 0.0
A1 6.148750000000001 11.36 0.0
A1 8.60825 11.36 0.0
A1 11.06775 11.36 0.0
A1 13.527249999999999 11.36 0.0
A1 15.986749999999999 11.36 0.0
A1 18.44625 11.36 0.0
A1 20.905750000000005 11.36 0.0
A1 23.365250000000003 11.36 0.0
A1 25.82475 11.36 0.0
A1 1.2297500000000001 15.619999999999997 0.0
A1 3.68925 15.619999999999997 0.0
A1 6.148750000000001 15.619999999999997 0.0
A1 8.60825 15.619999999999997 0.0
A1 11.06775 15.619999999999997 0.0
A1 13.527249999999999 15.619999999999997 0.0
A1 15.986749999999999 15.619999999999997 0.0
A1 18.44625 15.619999999999997 0.0
A1 20.905750000000005 15.619999999999997 0.0
A1 23.365250000000003 15.619999999999997 0.0
A1 25.82475 15.619999999999997 0.0
A1 1.2297500000000001 19.88 0.0
A1 3.68925 19.88 0.0
A1 6.148750000000001 19.88 0.0
A1 8.60825 19.88 0.0
A1 11.06775 19.88 0.0
A1 13.527249999999999 19.88 0.0
A1 15.986749999999999 19.88 0.0
A1 18.44625 19.88 0.0
A1 20.905750000000005 19.88 0.0
A1 23.365250000000003 19.88 0.0
A1 25.82475 19.88 0.0
A1 1.2297500000000001 24.139999999999997 0.0
A1 3.68925 24.139999999999997 0.0
A1 6.148750000000001 24.139999999999997 0.0
A1 8.60825 24.139999999999997 0.0
A1 11.06775 24.139999999999997 0.0
A1 13.527249999999999 24.139999999999997 0.0
A1 15.986749999999999 24.139999999999997 0.0
A1 18.44625 24.139999999999997 0.0
A1 20.905750000000005 24.139999999999997 0.0
A1 23.365250000000003 24.139999999999997 0.0
A1 25.82475 24.139999999999997 0.0
A1 1.2297500000000001 28.399999999999995 0.0
A1 3.68925 28.399999999999995 0.0
A1 6.148750000000001 28.399999999999995 0.0
A1 8.60825 28.399999999999995 0.0
A1 11.06775 28.399999999999995 0.0
A1 13.527249999999999 28.399999999999995 0.0
A1 15.986749999999999 28.399999999999995 0.0
A1 18.44625 28.399999999999995 0.0
A1 20.905750000000005 28.399999999999995 0.0
A1 23.365250000000003 28.399999999999995 0.0
A1 25.82475 28.399999999999995 0.0
A1 1.2297500000000001 32.66 0.0
A1 3.68925 32.66 0.0
A1 6.148750000000001 32.66 0.0
A1 8.60825 32.66 0.0
A1 11.06775 32.66 0.0
A1 13.527249999999999 32.66 0.0
A1 15.986749999999999 32.66 0.0
A1 18.44625 32.66 0.0
A1 20.905750000000005 32.66 0.0
A1 23.365250000000003 32.66 0.0
A1 25.82475 32.66 0.0
A1 1.2297500000000001 36.919999999999995 0.0
A1 3.68925 36.919999999999995 0.0
A1 6.148750000000001 36.919999999999995 0.0
A1 8.60825 36.919999999999995 0.0
A1 11.06775 36.919999999999995 0.0
A1 13.527249999999999 36.919999999999995 0.0
A1 15.986749999999999 36.919999999999995 0.0
A1 18.44625 36.919999999999995 0.0
A1 20.905750000000005 36.919999999999995 0.0
A1 23.365250000000003 36.919999999999995 0.0
A1 25.82475 36.919999999999995 0.0
A1 1.2297500000000001 41.17999999999999 0.0
A1 3.68925 41.17999999999999 0.0
A1 6.148750000000001 41.17999999999999 0.0
A1 8.60825 41.17999999999999 0.0
A1 11.06775 41.17999999999999 0.0
A1 13.527249999999999 41.17999999999999 0.0
A1 15.986749999999999 41.17999999999999 0.0
A1 18.44625 41.17999999999999 0.0
A1 20.905750000000005 41.17999999999999 0.0
A1 23.365250000000003 41.17999999999999 0.0
A1 25.82475 41.17999999999999 0.0
A1 2.4595000000000002 0.7100000000000001 -3.35
A1 4.9190000000000005 0.7100000000000001 -3.35
A1 7.3785 0.7100000000000001 -3.35
A1 9.838000000000001 0.7100000000000001 -3.35
A1 12.297500000000001 0.7100000000000001 -3.35
A1 14.756999999999998 0.7100000000000001 -3.35
A1 17.2165 0.7100000000000001 -3.35
A1 19.676000000000002 0.7100000000000001 -3.35
A1 22.1355 0.7100000000000001 -3.35
A1 24.595 0.7100000000000001 -3.35
A1 2.4595000000000002 4.97 -3.35
A1 4.9190000000000005 4.97 -3.35
A1 7.3785 4.97 -3.35
A1 9.838000000000001 4.97 -3.35
A1 12.297500000000001 4.97 -3.35
A1 14.756999999999998 4.97 -3.35
A1 17.2165 4.97 -3.35
A1 19.676000000000002 4.97 -3.35
A1 22.1355 4.97 -3.35
A1 24.595 4.97 -3.35
A1 2.4595000000000002 9.229999999999999 -3.35
A1 4.9190000000000005 9.229999999999999 -3.35
A1 7.3785 9.229999999999999 -3.35
A1 9.838000000000001 9.229999999999999 -3.35
A1 12.297500000000001 9.229999999999999 -3.35
A1 14.756999999999998 9.229999999999999 -3.35
A1 17.2165 9.229999999999999 -3.35
A1 19.676000000000002 9.229999999999999 -3.35
A1 22.1355 9.229999999999999 -3.35
A1 24.595 9.229999999999999 -3.35
A1 2.4595000000000002 13.489999999999998 -3.35
A1 4.9190000000000005 13.489999999999998 -3.35
A1 7.3785 13.489999999999998 -3.35
A1 9.838000000000001 13.489999999999998 -3.35
A1 12.297500000000001 13.489999999999998 -3.35
A1 14.756999999999998 13.489999999999998 -3.35
A1 17.2165 13.489999999999998 -3.35
A1 19.676000000000002 13.489999999999998 -3.35
A1 22.1355 13.489999999999998 -3.35
A1 24.595 13.489999999999998 -3.35
A1 2.4595000000000002 17.75 -3.35
A1 4.9190000000000005 17.75 -3.35
A1 7.3785 17.75 -3.35
A1 9.838000000000001 17.75 -3.35
A1 12.297500000000001 17.75 -3.35
A1 14.756999999999998 17.75 -3.35
A1 17.2165 17.75 -3.35
A1 19.676000000000002 17.75 -3.35
A1 22.1355 17.75 -3.35
A1 24.595 17.75 -3.35
A1 2.4595000000000002 22.009999999999998 -3.35
A1 4.9190000000000005 22.009999999999998 -3.35
A1 7.3785 22.009999999999998 -3.35
A1 9.838000000000001 22.009999999999998 -3.35
A1 12.297500000000001 22.009999999999998 -3.35
A1 14.756999999999998 22.009999999999998 -3.35
A1 17.2165 22.009999999999998 -3.35
A1 19.676000000000002 22.009999999999998 -3.35
A1 22.1355 22.009999999999998 -3.35
A1 24.595 22.009999999999998 -3.35
A1 2.4595000000000002 26.269999999999992 -3.35
A1 4.9190000000000005 26.269999999999992 -3.35
A1 7.3785 26.269999999999992 -3.35
A1 9.838000000000001 26.269999999999992 -3.35
A1 12.297500000000001 26.269999999999992 -3.35
A1 14.756999999999998 26.269999999999992 -3.35
A1 17.2165 26.269999999999992 -3.35
A1 19.676000000000002 26.269999999999992 -3.35
A1 22.1355 26.269999999999992 -3.35
A1 24.595 26.269999999999992 -3.35
A1 2.4595000000000002 30.529999999999994 -3.35
A1 4.9190000000000005 30.529999999999994 -3.35
A1 7.3785 30.529999999999994 -3.35
A1 9.838000000000001 30.529999999999994 -3.35
A1 12.297500000000001 30.529999999999994 -3.35
A1 14.756999999999998 30.529999999999994 -3.35
A1 17.2165 30.529999999999994 -3.35
A1 19.676000000000002 30.529999999999994 -3.35
A1 22.1355 30.529999999999994 -3.35
A1 24.595 30.529999999999994 -3.35
A1 2.4595000000000002 34.79 -3.35
A1 4.9190000000000005 34.79 -3.35
A1 7.3785 34.79 -3.35
A1 9.838000000000001 34.79 -3.35
A1 12.297500000000001 34.79 -3.35
A1 14.756999999999998 34.79 -3.35
A1 17.2165 34.79 -3.35
A1 19.676000000000002 34.79 -3.35
A1 22.1355 34.79 -3.35
A1 24.595 34.79 -3.35
A1 2.4595000000000002 39.05 -3.35
A1 4.9190000000000005 39.05 -3.35
A1 7.3785 39.05 -3.35
A1 9.838000000000001 39.05 -3.35
A1 12.297500000000001 39.05 -3.35
A1 14.756999999999998 39.05 -3.35
A1 17.2165 39.05 -3.35
A1 19.676000000000002 39.05 -3.35
A1 22.1355 39.05 -3.35
A1 24.595 39.05 -3.35
A1 1.2297500000000001 2.84 -3.35
A1 3.68925 2.84 -3.35
A1 6.148750000000001 2.84 -3.35
A1 8.60825 2.84 -3.35
A1 11.06775 2.84 -3.35
A1 13.527249999999999 2.84 -3.35
A1 15.986749999999999 2.84 -3.35
A1 18.44625 2.84 -3.35
A1 20.905750000000005 2.84 -3.35
A1 23.365250000000003 2.84 -3.35
A1 25.82475 2.84 -3.35
A1 1.2297500000000001 7.1 -3.35
A1 3.68925 7.1 -3.35
A1 6.148750000000001 7.1 -3.35
A1 8.60825 7.1 -3.35
A1 11.06775 7.1 -3.35
A1 13.527249999999999 7.1 -3.35
A1 15.986749999999999 7.1 -3.35
A1 18.44625 7.1 -3.35
A1 20.905750000000005 7.1 -3.35
A1 23.365250000000003 7.1 -3.35
A1 25.82475 7.1 -3.35
A1 1.2297500000000001 11.36 -3.35
A1 3.68925 11.36 -3.35
A1 6.148750000000001 11.36 -3.35
A1 8.60825 11.36 -3.35
A1 11.06775 11.36 -3.35
A1 13.527249999999999 11.36 -3.35
A1 15.986749999999999 11.36 -3.35
A1 18.44625 11.36 -3.35
A1 20.905750000000005 11.36 -3.35
A1 23.365250000000003 11.36 -3.35
A1 25.82475 11.36 -3.35
A1 1.2297500000000001 15.619999999999997 -3.35
A1 3.68925 15.619999999999997 -3.35
A1 6.148750000000001 15.619999999999997 -3.35
A1 8.60825 15.619999999999997 -3.35
A1 11.06775 15.619999999999997 -3.35
A1 13.527249999999999 15.619999999999997 -3.35
A1 15.986749999999999 15.619999999999997 -3.35
A1 18.44625 15.619999999999997 -3.35
A1 20.905750000000005 15.619999999999997 -3.35
A1 23.365250000000003 15.619999999999997 -3.35
A1 25.82475 15.619999999999997 -3.35
A1 1.2297500000000001 19.88 -3.35
A1 3.68925 19.88 -3.35
A1 6.148750000000001 19.88 -3.35
A1 8.60825 19.88 -3.35
A1 11.06775 19.88 -3.35
A1 13.527249999999999 19.88 -3.35
A1 15.986749999999999 19.88 -3.35
A1 18.44625 19.88 -3.35
A1 20.905750000000005 19.88 -3.35
A1 23.365250000000003 19.88 -3.35
A1 25.82475 19.88 -3.35
A1 1.2297500000000001 24.139999999999997 -3.35
A1 3.68925 24.139999999999997 -3.35
A1 6.148750000000001 24.139999999999997 -3.35
A1 8.60825 24.139999999999997 -3.35
A1 11.06775 24.139999999999997 -3.35
A1 13.527249999999999 24.139999999999997 -3.35
A1 15.986749999999999 24.139999999999997 -3.35
A1 18.44625 24.139999999999997 -3.35
A1 20.905750000000005 24.139999999999997 -3.35
A1 23.365250000000003 24.139999999999997 -3.35
A1 25.82475 24.139999999999997 -3.35
A1 1.2297500000000001 28.399999999999995 -3.35
A1 3.68925 28.399999999999995 -3.35
A1 6.148750000000001 28.399999999999995 -3.35
A1 8.60825 28.399999999999995 -3.35
A1 11.06775 28.399999999999995 -3.35
A1 13.527249999999999 28.399999999999995 -3.35
A1 15.986749999999999 28.399999999999995 -3.35
A1 18.44625 28.399999999999995 -3.35
A1 20.905750000000005 28.399999999999995 -3.35
A1 23.365250000000003 28.399999999999995 -3.35
A1 25.82475 28.399999999999995 -3.35
A1 1.2297500000000001 32.66 -3.35
A1 3.68925 32.66 -3.35
A1 6.148750000000001 32.66 -3.35
A1 8.60825 32.66 -3.35
A1 11.06775 32.66 -3.35
A1 13.527249999999999 32.66 -3.35
A1 15.986749999999999 32.66 -3.35
A1 18.44625 32.66 -3.35
A1 20.905750000000005 32.66 -3.35
A1 23.365250000000003 32.66 -3.35
A1 25.82475 32.66 -3.35
A1 1.2297500000000001 36.919999999999995 -3.35
A1 3.68925 36.919999999999995 -3.35
A1 6.148750000000001 36.919999999999995 -3.35
A1 8.60825 36.919999999999995 -3.35
A1 11.06775 36.919999999999995 -3.35
A1 13.527249999999999 36.919999999999995 -3.35
A1 15.986749999999999 36.919999999999995 -3.35
A1 18.44625 36.919999999999995 -3.35
A1 20.905750000000005 36.919999999999995 -3.35
A1 23.365250000000003 36.919999999999995 -3.35
A1 25.82475 36.919999999999995 -3.35
A1 1.2297500000000001 41.17999999999999 -3.35
A1 3.68925 41.17999999999999 -3.35
A1 6.148750000000001 41.17999999999999 -3.35
A1 8.60825 41.17999999999999 -3.35
A1 11.06775 41.17999999999999 -3.35
A1 13.527249999999999 41.17999999999999 -3.35
A1 15.986749999999999 41.17999999999999 -3.35
A1 18.44625 41.17999999999999 -3.35
A1 20.905750000000005 41.17999999999999 -3.35
A1 23.365250000000003 41.17999999999999 -3.35
A1 25.82475 41.17999999999999 -3.35
A1 2.4595000000000002 2.13 -3.35
A1 4.9190000000000005 2.13 -3.35
A1 7.3785 2.13 -3.35
A1 9.838000000000001 2.13 -3.35
A1 12.297500000000001 2.13 -3.35
A1 14.756999999999998 2.13 -3.35
A1 17.2165 2.13 -3.35
A1 19.676000000000002 2.13 -3.35
A1 22.1355 2.13 -3.35
A1 24.595 2.13 -3.35
A1 2.4595000000000002 6.389999999999999 -3.35
A1 4.9190000000000005 6.389999999999999 -3.35
A1 7.3785 6.389999999999999 -3.35
A1 9.838000000000001 6.389999999999999 -3.35
A1 12.297500000000001 6.389999999999999 -3.35
A1 14.756999999999998 6.389999999999999 -3.35
A1 17.2165 6.389999999999999 -3.35
A1 19.676000000000002 6.389999999999999 -3.35
A1 22.1355 6.389999999999999 -3.35
A1 24.595 6.389999999999999 -3.35
A1 2.4595000000000002 10.649999999999999 -3.35
A1 4.9190000000000005 10.649999999999999 -3.35
A1 7.3785 10.649999999999999 -3.35
A1 9.838000000000001 10.649999999999999 -3.35
A1 12.297500000000001 10.649999999999999 -3.35
A1 14.756999999999998 10.649999999999999 -3.35
A1 17.2165 10.649999999999999 -3.35
A1 19.676000000000002 10.649999999999999 -3.35
A1 22.1355 10.649999999999999 -3.35
A1 24.595 10.649999999999999 -3.35
A1 2.4595000000000002 14.909999999999997 -3.35
A1 4.9190000000000005 14.909999999999997 -3.35
A1 7.3785 14.909999999999997 -3.35
A1 9.838000000000001 14.909999999999997 -3.35
A1 12.297500000000001 14.909999999999997 -3.35
A1 14.756999999999998 14.909999999999997 -3.35
A1 17.2165 14.909999999999997 -3.35
A1 19.676000000000002 14.909999999999997 -3.35
A1 22.1355 14.909999999999997 -3.35
A1 24.595 14.909999999999997 -3.35
A1 2.4595000000000002 19.169999999999998 -3.35
A1 4.9190000000000005 19.169999999999998 -3.35
A1 7.3785 19.169999999999998 -3.35
A1 9.838000000000001 19.169999999999998 -3.35
A1 12.297500000000001 19.169999999999998 -3.35
A1 14.756999999999998 19.169999999999998 -3.35
A1 17.2165 19.169999999999998 -3.35
A1 19.676000000000002 19.169999999999998 -3.35
A1 22.1355 19.169999999999998 -3.35
A1 24.595 19.169999999999998 -3.35
A1 2.4595000000000002 23.429999999999996 -3.35
A1 4.9190000000000005 23.429999999999996 -3.35
A1 7.3785 23.429999999999996 -3.35
A1 9.838000000000001 23.429999999999996 -3.35
A1 12.297500000000001 23.429999999999996 -3.35
A1 14.756999999999998 23.429999999999996 -3.35
A1 17.2165 23.429999999999996 -3.35
A1 19.676000000000002 23.429999999999996 -3.35
A1 22.1355 23.429999999999996 -3.35
A1 24.595 23.429999999999996 -3.35
A1 2.4595000000000002 27.68999999999999 -3.35
A1 4.9190000000000005 27.68999999999999 -3.35
A1 7.3785 27.68999999999999 -3.35
A1 9.838000000000001 27.68999999999999 -3.35
A1 12.297500000000001 27.68999999999999 -3.35
A1 14.756999999999998 27.68999999999999 -3.35
A1 17.2165 27.68999999999999 -3.35
A1 19.676000000000002 27.68999999999999 -3.35
A1 22.1355 27.68999999999999 -3.35
A1 24.595 27.68999999999999 -3.35
A1 2.4595000000000002 31.949999999999996 -3.35
A1 4.9190000000000005 31.949999999999996 -3.35
A1 7.3785 31.949999999999996 -3.35
A1 9.838000000000001 31.949999999999996 -3.35
A1 12.297500000000001 31.949999999999996 -3.35
A1 14.756999999999998 31.949999999999996 -3.35
A1 17.2165 31.949999999999996 -3.35
A1 19.676000000000002 31.949999999999996 -3.35
A1 22.1355 31.949999999999996 -3.35
A1 24.595 31.949999999999996 -3.35
A1 2.4595000000000002 36.209999999999994 -3.35
A1 4.9190000000000005 36.209999999999994 -3.35
A1 7.3785 36.209999999999994 -3.35
A1 9.838000000000001 36.209999999999994 -3.35
A1 12.297500000000001 36.209999999999994 -3.35
A1 14.756999999999998 36.209999999999994 -3.35
A1 17.2165 36.209999999999994 -3.35
A1 19.676000000000002 36.209999999999994 -3.35
A1 22.1355 36.209999999999994 -3.35
A1 24.595 36.209999999999994 -3.35
A1 2.4595000000000002 40.47 -3.35
A1 4.9190000000000005 40.47 -3.35
A1 7.3785 40.47 -3.35
A1 9.838000000000001 40.47 -3.35
A1 12.297500000000001 40.47 -3.35
A1 14.756999999999998 40.47 -3.35
A1 17.2165 40.47 -3.35
A1 19.676000000000002 40.47 -3.35
A1 22.1355 40.47 -3.35
A1 24.595 40.47 -3.35
A1 3.68925 0.0 -3.35
A1 6.148750000000001 0.0 -3.35
A1 8.60825 0.0 -3.35
A1 11.06775 0.0 -3.35
A1 13.527249999999999 0.0 -3.35
A1 15.986749999999999 0.0 -3.35
A1 18.44625 0.0 -3.35
A1 20.905750000000005 0.0 -3.35
A1 23.365250000000003 0.0 -3.35
A1 1.2297500000000001 4.26 -3.35
A1 3.68925 4.26 -3.35
A1 6.148750000000001 4.26 -3.35
A1 8.60825 4.26 -3.35
A1 11.06775 4.26 -3.35
A1 13.527249999999999 4.26 -3.35
A1 15.986749999999999 4.26 -3.35
A1 18.44625 4.26 -3.35
A1 20.905750000000005 4.26 -3.35
A1 23.365250000000003 4.26 -3.35
A1 25.82475 4.26 -3.35
A1 1.2297500000000001 8.52 -3.35
A1 3.68925 8.52 -3.35
A1 6.148750000000001 8.52 -3.35
A1 8.60825 8.52 -3.35
A1 11.06775 8.52 -3.35
A1 13.527249999999999 8.52 -3.35
A1 15.986749999999999 8.52 -3.35
A1 18.44625 8.52 -3.35
A1 20.905750000000005 8.52 -3.35
A1 23.365250000000003 8.52 -3.35
A1 25.82475 8.52 -3.35
A1 1.2297500000000001 12.779999999999998 -3.35
A1 3.68925 12.779999999999998 -3.35
A1 6.148750000000001 12.779999999999998 -3.35
A1 8.60825 12.779999999999998 -3.35
A1 11.06775 12.779999999999998 -3.35
A1 13.527249999999999 12.779999999999998 -3.35
A1 15.986749999999999 12.779999999999998 -3.35
A1 18.44625 12.779999999999998 -3.35
A1 20.905750000000005 12.779999999999998 -3.35
A1 23.365250000000003 12.779999999999998 -3.35
A1 25.82475 12.779999999999998 -3.35
A1 1.2297500000000001 17.04 -3.35
A1 3.68925 17.04 -3.35
A1 6.148750000000001 17.04 -3.35
A1 8.60825 17.04 -3.35
A1 11.06775 17.04 -3.35
A1 13.527249999999999 17.04 -3.35
A1 15.986749999999999 17.04 -3.35
A1 18.44625 17.04 -3.35
A1 20.905750000000005 17.04 -3.35
A1 23.365250000000003 17.04 -3.35
A1 25.82475 17.04 -3.35
A1 1.2297500000000001 21.299999999999997 -3.35
A1 3.68925 21.299999999999997 -3.35
A1 6.148750000000001 21.299999999999997 -3.35
A1 8.60825 21.299999999999997 -3.35
A1 11.06775 21.299999999999997 -3.35
A1 13.527249999999999 21.299999999999997 -3.35
A1 15.986749999999999 21.299999999999997 -3.35
A1 18.44625 21.299999999999997 -3.35
A1 20.905750000000005 21.299999999999997 -3.35
A1 23.365250000000003 21.299999999999997 -3.35
A1 25.82475 21.299999999999997 -3.35
A1 1.2297500000000001 25.559999999999995 -3.35
A1 3.68925 25.559999999999995 -3.35
A1 6.148750000000001 25.559999999999995 -3.35
A1 8.60825 25.559999999999995 -3.35
A1 11.06775 25.559999999999995 -3.35
A1 13.527249999999999 25.559999999999995 -3.35
A1 15.986749999999999 25.559999999999995 -3.35
A1 18.44625 25.559999999999995 -3.35
A1 20.905750000000005 25.559999999999995 -3.35
A1 23.365250000000003 25.559999999999995 -3.35
A1 25.82475 25.559999999999995 -3.35
A1 1.2297500000000001 29.819999999999993 -3.35
A1 3.68925 29.819999999999993 -3.35
A1 6.148750000000001 29.819999999999993 -3.35
A1 8.60825 29.819999999999993 -3.35
A1 11.06775 29.819999999999993 -3.35
A1 13.527249999999999 29.819999999999993 -3.35
A1 15.986749999999999 29.819999999999993 -3.35
A1 18.44625 29.819999999999993 -3.35
A1 20.905750000000005 29.819999999999993 -3.35
A1 23.365250000000003 29.819999999999993 -3.35
A1 25.82475 29.819999999999993 -3.35
A1 1.2297500000000001 34.08 -3.35
A1 3.68925 34.08 -3.35
A1 6.148750000000001 34.08 -3.35
A1 8.60825 34.08 -3.35
A1 11.06775 34.08 -3.35
A1 13.527249999999999 34.08 -3.35
A1 15.986749999999999 34.08 -3.35
A1 18.44625 34.08 -3.35
A1 20.905750000000005 34.08 -3.35
A1 23.365250000000003 34.08 -3.35
A1 25.82475 34.08 -3.35
A1 1.2297500000000001 38.339999999999996 -3.35
A1 3.68925 38.339999999999996 -3.35
A1 6.148750000000001 38.339999999999996 -3.35
A1 8.60825 38.339999999999996 -3.35
A1 11.06775 38.339999999999996 -3.35
A1 13.527249999999999 38.339999999999996 -3.35
A1 15.986749999999999 38.339999999999996 -3.35
A1 18.44625 38.339999999999996 -3.35
A1 20.905750000000005 38.339999999999996 -3.35
A1 23.365250000000003 38.339999999999996 -3.35
A1 25.82475 38.339999999999996 -3.35
